On Peak 2030 v11/nyiso_2030_v11_shunts_as_gens_psse33fromMatpower.raw
0, 100, 33, 0, 0, 60  / 22-Sep-2022 21:53:19 - MATPOWER 7.1


     1, 'MORTIMER    ',       115, 2,    1,   66, 1,        1.02,  114.010764,  1.1,  0.9,  1.1,  0.9
     2, 'UNKNOWN12411',        69, 1,    1,   70, 1,  1.01185119,  69.1736846,  1.1,  0.9,  1.1,  0.9
     3, 'UNKNOWN12412',       115, 1,    1,   70, 1,  1.01743322,  86.9227634,  1.1,  0.9,  1.1,  0.9
     4, 'UNKNOWN12412',       115, 1,    1,   68, 1, 0.998250321,  111.264157,  1.1,  0.9,  1.1,  0.9
     5, 'UNKNOWN12412',       115, 1,    1,   70, 1,  1.00952914,   91.866988,  1.1,  0.9,  1.1,  0.9
     6, 'UNKNOWN12412',       115, 2,    1,   70, 1,        1.02,   71.607494,  1.1,  0.9,  1.1,  0.9
     7, 'UNKNOWN12412',       115, 1,    1,   70, 1,  1.01603966,  71.2948367,  1.1,  0.9,  1.1,  0.9
     8, 'UNKNOWN12412',       115, 1,    1,   70, 1,  1.01896183,  71.7404588,  1.1,  0.9,  1.1,  0.9
     9, 'UNKNOWN12413',       115, 1,    1,   71, 1,  1.01317074,  62.9145382,  1.1,  0.9,  1.1,  0.9
    10, 'UNKNOWN12413',       115, 1,    1,   68, 1,  1.01922757,  105.488512,  1.1,  0.9,  1.1,  0.9
    11, 'UNKNOWN12413',       115, 1,    1,   70, 1,  1.01833511,  86.7024334,  1.1,  0.9,  1.1,  0.9
    12, 'UNKNOWN12413',       115, 1,    1,   70, 1,  1.01730107,  70.1227404,  1.1,  0.9,  1.1,  0.9
    13, 'UNKNOWN12413',       115, 1,    1,   70, 1,  1.01495804,   69.090489,  1.1,  0.9,  1.1,  0.9
    14, 'UNKNOWN12414',       115, 1,    1,   69, 1,  1.01316281,  77.3598514,  1.1,  0.9,  1.1,  0.9
    15, 'UNKNOWN12414',       115, 2,    1,   69, 1,        1.02,  109.076608,  1.1,  0.9,  1.1,  0.9
    16, 'BOONVILLE   ',       115, 1,    1,   69, 1,  1.00804129,  93.3628206,  1.1,  0.9,  1.1,  0.9
    17, 'UNKNOWN12414',       138, 2,    1,   75, 1,  1.01517668,  37.7885913,  1.1,  0.9,  1.1,  0.9
    18, 'GLENWOOD LAN',        69, 2,    1,   75, 1,  1.02158763,  42.6053518,  1.1,  0.9,  1.1,  0.9
    19, 'NORTHPORT   ',       115, 2,    1,   75, 1,        1.02,  39.4011866,  1.1,  0.9,  1.1,  0.9
    20, 'UNKNOWN12415',       115, 1,    1,   69, 1,   1.0192146,  112.774453,  1.1,  0.9,  1.1,  0.9
    21, 'UNKNOWN12415',       115, 1,    1,   69, 1,  1.01980445,  112.772131,  1.1,  0.9,  1.1,  0.9
    22, 'UNKNOWN12415',        69, 1,    1,   70, 1,  1.01954708,   70.522682,  1.1,  0.9,  1.1,  0.9
    23, 'UNKNOWN12416',       115, 1,    1,   69, 1,  1.01506334,  77.6277843,  1.1,  0.9,  1.1,  0.9
    24, 'UNKNOWN12416',       115, 2,    1,   67, 1,        1.02,    105.7876,  1.1,  0.9,  1.1,  0.9
    25, 'UNKNOWN12416',       115, 1,    1,   69, 1,  1.02046829,  105.067916,  1.1,  0.9,  1.1,  0.9
    26, 'UNKNOWN12416',       345, 2,    1,   74, 1,        1.02,  52.2406948,  1.1,  0.9,  1.1,  0.9
    27, 'UNKNOWN12417',       115, 2,    1,   67, 1,        1.02,   100.54679,  1.1,  0.9,  1.1,  0.9
    28, 'UNKNOWN12417',       115, 2,    1,   69, 1,  1.01995857,  105.468109,  1.1,  0.9,  1.1,  0.9
    29, 'UNKNOWN12419',       115, 2,    1,   67, 1, 0.997096865,  108.844156,  1.1,  0.9,  1.1,  0.9
    30, 'UNKNOWN12419',       115, 2,    1,   67, 1,        1.02,  118.964797,  1.1,  0.9,  1.1,  0.9
    31, 'UNKNOWN12419',       115, 2,    1,   70, 1,        1.02,  72.7894038,  1.1,  0.9,  1.1,  0.9
    32, 'UNKNOWN12419',       115, 2,    1,   70, 1,        1.02,  72.8088058,  1.1,  0.9,  1.1,  0.9
    33, 'UNKNOWN12420',       115, 2,    1,   65, 1,       1.025,  129.661395,  1.1,  0.9,  1.1,  0.9
    34, 'HAMMERHILL  ',       115, 2,    1,   67, 1,        1.02,  109.853468,  1.1,  0.9,  1.1,  0.9
    35, 'UNKNOWN12420',       115, 1,    1,   68, 1,  1.00426267,  106.732895,  1.1,  0.9,  1.1,  0.9
    36, 'UNKNOWN12420',       115, 1,    1,   68, 1,  1.00406717,  106.797033,  1.1,  0.9,  1.1,  0.9
    37, 'UNKNOWN12420',       115, 2,    1,   65, 1,  1.00991513,  124.237248,  1.1,  0.9,  1.1,  0.9
    38, 'BLISS WINDPA',       115, 2,    1,   65, 1,        1.02,  127.269313,  1.1,  0.9,  1.1,  0.9
    39, 'UNKNOWN12422',       230, 2,    1,   65, 1,       1.025,  133.534387,  1.1,  0.9,  1.1,  0.9
    40, 'UNKNOWN12422',       115, 1,    1,   69, 1,  1.02439914,  119.454242,  1.1,  0.9,  1.1,  0.9
    41, 'UNKNOWN12422',       115, 2,    1,   65, 1,  1.01006189,  126.310057,  1.1,  0.9,  1.1,  0.9
    42, 'UNKNOWN12422',       115, 1,    1,   65, 1,  1.01998893,  123.743602,  1.1,  0.9,  1.1,  0.9
    43, 'DUGAN       ',       115, 1,    1,   65, 1,  1.01858644,  123.353012,  1.1,  0.9,  1.1,  0.9
    44, 'UNKNOWN12423',       115, 1,    1,   65, 1,  1.01860611,  123.362563,  1.1,  0.9,  1.1,  0.9
    45, 'TAP124231   ',       115, 1,    1,   65, 1,  1.01861549,  123.364808,  1.1,  0.9,  1.1,  0.9
    46, 'W OLEAN     ',       115, 1,    1,   65, 1,  1.01993166,  123.729586,  1.1,  0.9,  1.1,  0.9
    47, 'VALLEY CAT  ',       115, 1,    1,   65, 1,  1.02200233,  124.573376,  1.1,  0.9,  1.1,  0.9
    48, 'MACHIAS #13 ',       115, 1,    1,   65, 1,  1.01949278,  124.749242,  1.1,  0.9,  1.1,  0.9
    49, 'VALLEY      ',       115, 1,    1,   69, 1,  1.01484419,  82.2712775,  1.1,  0.9,  1.1,  0.9
    50, 'UNKNOWN12424',       115, 1,    1,   69, 1,  1.00956531,  110.291089,  1.1,  0.9,  1.1,  0.9
    51, 'UNKNOWN12425',       115, 1,    1,   67, 1,  1.01720511,  120.679335,  1.1,  0.9,  1.1,  0.9
    52, 'UNKNOWN12425',       115, 2,    1,   67, 1,        1.02,  121.089582,  1.1,  0.9,  1.1,  0.9
    53, 'UNKNOWN12425',       115, 2,    1,   67, 1,        1.02,   120.75422,  1.1,  0.9,  1.1,  0.9
    54, 'UNKNOWN12425',       230, 1,    1,   67, 1,   1.0158205,  121.680384,  1.1,  0.9,  1.1,  0.9
    55, 'UNKNOWN12425',       115, 1,    1,   67, 1,  1.00273211,  111.527862,  1.1,  0.9,  1.1,  0.9
    56, 'UNKNOWN12425',       115, 1,    1,   67, 1,  1.00139449,  110.205255,  1.1,  0.9,  1.1,  0.9
    57, 'UNKNOWN12426',       115, 1,    1,   67, 1,  1.00103588,  108.697638,  1.1,  0.9,  1.1,  0.9
    58, 'UNKNOWN12432',       115, 1,    1,   67, 1,  1.01923657,  109.613913,  1.1,  0.9,  1.1,  0.9
    59, 'UNKNOWN12432',       115, 1,    1,   69, 1,  1.02127165,  105.052342,  1.1,  0.9,  1.1,  0.9
    60, 'UNKNOWN12432',        69, 2,    1,   69, 1,        1.02,  70.3634661,  1.1,  0.9,  1.1,  0.9
    61, 'UNKNOWN12433',       115, 1,    1,   67, 1,  1.00502031,  100.176425,  1.1,  0.9,  1.1,  0.9
    62, 'UNKNOWN12433',       345, 1,    1,   70, 1,  1.02000226,   81.300757,  1.1,  0.9,  1.1,  0.9
    63, 'UNKNOWN12433',       345, 2,    1,   70, 1,        1.02,  81.3231829,  1.1,  0.9,  1.1,  0.9
    64, 'UNKNOWN12433',       115, 1,    1,   69, 1,  1.00487364,  106.528886,  1.1,  0.9,  1.1,  0.9
    65, 'BERRY RD    ',       115, 1,    1,   65, 1,   1.0207942,  122.259481,  1.1,  0.9,  1.1,  0.9
    66, 'BAKER ST    ',       115, 1,    1,   65, 1,  1.01736391,  119.787499,  1.1,  0.9,  1.1,  0.9
    67, 'CUMMINS     ',       115, 1,    1,   65, 1,   1.0173999,  119.838186,  1.1,  0.9,  1.1,  0.9
    68, 'SILVER CREEK',       115, 1,    1,   65, 1,  1.01692055,  122.210152,  1.1,  0.9,  1.1,  0.9
    69, 'FALCONER    ',       115, 2,    1,   65, 1,        1.02,  120.167843,  1.1,  0.9,  1.1,  0.9
    70, 'UNKNOWN12434',       115, 1,    1,   65, 1,  1.01979611,  120.148184,  1.1,  0.9,  1.1,  0.9
    71, 'WESTFIELD VI',       115, 1,    1,   65, 1,  1.02231736,  122.215299,  1.1,  0.9,  1.1,  0.9
    72, 'UNKNOWN12434',       115, 1,    1,   65, 1,  1.01997682,  122.296966,  1.1,  0.9,  1.1,  0.9
    73, 'LUDIUM      ',       115, 1,    1,   65, 1,  1.01992558,  122.282595,  1.1,  0.9,  1.1,  0.9
    74, 'BENNETT RD  ',       115, 1,    1,   65, 1,  1.01977109,  122.237196,  1.1,  0.9,  1.1,  0.9
    75, 'E DUNKIRK   ',       115, 1,    1,   65, 1,  1.01957869,  122.184764,  1.1,  0.9,  1.1,  0.9
    76, 'UNKNOWN12435',       115, 1,    1,   65, 1,  1.01956908,  122.182488,  1.1,  0.9,  1.1,  0.9
    77, 'MOON SWITCHE',       115, 1,    1,   65, 1,  1.02010039,  121.200471,  1.1,  0.9,  1.1,  0.9
    78, 'HARTFIELD   ',       115, 1,    1,   65, 1,  1.02123294,  121.711737,  1.1,  0.9,  1.1,  0.9
    79, 'EAST 13TH ST',       345, 2,    1,   74, 1,        1.02,  52.9074331,  1.1,  0.9,  1.1,  0.9
    80, 'UNKNOWN12447',       115, 2,    1,   69, 1,  1.01875984,  104.876082,  1.1,  0.9,  1.1,  0.9
    81, 'WESTOVER    ',       115, 1,    1,   67, 1,  1.00740858,  96.0529061,  1.1,  0.9,  1.1,  0.9
    82, 'UNKNOWN12452',       115, 2,    1,   69, 1,        1.02,  89.7343085,  1.1,  0.9,  1.1,  0.9
    83, 'UNKNOWN12452',       115, 1,    1,   69, 1,  1.02052657,  105.120472,  1.1,  0.9,  1.1,  0.9
    84, 'UNKNOWN12452',       115, 2,    1,   70, 1,        1.02,   72.645895,  1.1,  0.9,  1.1,  0.9
    85, 'COLD SPRING ',       115, 1,    1,   65, 1,  1.01708166,   120.40019,  1.1,  0.9,  1.1,  0.9
    86, 'UNKNOWN12457',       115, 1,    1,   65, 1,  1.01707328,  125.081508,  1.1,  0.9,  1.1,  0.9
    87, 'UNKNOWN12457',       115, 1,    1,   65, 1,  1.01651811,  125.212527,  1.1,  0.9,  1.1,  0.9
    88, 'YORKSHIRE   ',       115, 1,    1,   65, 1,    1.016515,  125.404473,  1.1,  0.9,  1.1,  0.9
    89, 'ARCADE      ',       115, 1,    1,   65, 1,  1.01655366,  125.475441,  1.1,  0.9,  1.1,  0.9
    90, 'BIXBY HILL  ',       115, 1,    1,   65, 1,  1.01685957,  125.693732,  1.1,  0.9,  1.1,  0.9
    91, 'UNKNOWN12458',       115, 1,    1,   65, 1,   1.0174064,  126.016035,  1.1,  0.9,  1.1,  0.9
    92, 'UNKNOWN12458',       115, 1,    1,   66, 1,  1.01054853,  120.495212,  1.1,  0.9,  1.1,  0.9
    93, 'UNKNOWN12458',       115, 1,    1,   66, 1,  1.01944919,   123.43982,  1.1,  0.9,  1.1,  0.9
    94, 'UNKNOWN12458',       115, 1,    1,   66, 1,  1.01929398,  126.519805,  1.1,  0.9,  1.1,  0.9
    95, 'UNKNOWN12458',       115, 2,    1,   66, 1,        1.02,  126.649395,  1.1,  0.9,  1.1,  0.9
    96, 'UNKNOWN12458',       115, 1,    1,   66, 1,  1.01676524,  126.124041,  1.1,  0.9,  1.1,  0.9
    97, 'UNKNOWN12458',       115, 1,    1,   66, 1,  1.01682741,  126.161045,  1.1,  0.9,  1.1,  0.9
    98, 'UNKNOWN12458',       115, 1,    1,   66, 1,  1.01285054,  119.805581,  1.1,  0.9,  1.1,  0.9
    99, 'UNKNOWN12458',       115, 1,    1,   66, 1,  1.01011379,  119.334779,  1.1,  0.9,  1.1,  0.9
   100, 'UNKNOWN12458',       115, 1,    1,   66, 1,  1.00768887,  119.172302,  1.1,  0.9,  1.1,  0.9
   101, 'UNKNOWN12462',       115, 1,    1,   65, 1,  1.00980389,  118.355072,  1.1,  0.9,  1.1,  0.9
   102, 'N AKRON     ',       115, 1,    1,   65, 1,  1.00973807,  118.365471,  1.1,  0.9,  1.1,  0.9
   103, 'UNKNOWN12462',       115, 1,    1,   65, 1,  1.00869075,  118.623445,  1.1,  0.9,  1.1,  0.9
   104, 'TONAWANDA   ',       115, 1,    1,   65, 1,  1.00803705,  124.542502,  1.1,  0.9,  1.1,  0.9
   105, 'GETZVILLE   ',       115, 1,    1,   65, 1,  1.00803664,  124.833597,  1.1,  0.9,  1.1,  0.9
   106, 'UNKNOWN12463',       115, 1,    1,   65, 1,  1.00830173,  125.073628,  1.1,  0.9,  1.1,  0.9
   107, 'UNKNOWN12463',       115, 1,    1,   65, 1,  1.00922319,  125.528585,  1.1,  0.9,  1.1,  0.9
   108, 'UNKNOWN12463',       115, 1,    1,   67, 1,  1.00711637,   107.26378,  1.1,  0.9,  1.1,  0.9
   109, 'UNKNOWN12463',       115, 1,    1,   67, 1,  1.00547527,  107.030642,  1.1,  0.9,  1.1,  0.9
   110, 'UNKNOWN12464',       115, 1,    1,   67, 1,  1.00421952,  102.169827,  1.1,  0.9,  1.1,  0.9
   111, 'UNKNOWN12464',       115, 1,    1,   67, 1,  1.00160156,  106.780545,  1.1,  0.9,  1.1,  0.9
   112, 'UNKNOWN12464',       115, 1,    1,   67, 1,   1.0024501,  97.3862588,  1.1,  0.9,  1.1,  0.9
   113, 'UNKNOWN12464',       115, 1,    1,   67, 1,  1.00150518,  97.9107709,  1.1,  0.9,  1.1,  0.9
   114, 'UNKNOWN12464',       115, 1,    1,   67, 1,  1.00138054,  98.7433152,  1.1,  0.9,  1.1,  0.9
   115, 'KATTELVILLE ',       115, 1,    1,   67, 1,  1.00336624,  93.0285756,  1.1,  0.9,  1.1,  0.9
   116, 'UNKNOWN12465',       115, 2,    1,   67, 1,  1.00623558,  95.6901177,  1.1,  0.9,  1.1,  0.9
   117, 'NORTH ENDICO',       115, 1,    1,   67, 1,  1.00557688,  95.5412318,  1.1,  0.9,  1.1,  0.9
   118, 'UNKNOWN12465',       115, 1,    1,   67, 1,  1.00371921,    94.93788,  1.1,  0.9,  1.1,  0.9
   119, 'UNKNOWN12465',       115, 1,    1,   67, 1,   1.0037183,   94.923233,  1.1,  0.9,  1.1,  0.9
   120, 'UNKNOWN12465',       115, 1,    1,   67, 1,  1.00420224,  95.0586852,  1.1,  0.9,  1.1,  0.9
   121, 'UNKNOWN12466',       115, 1,    1,   67, 1,  1.00471866,  95.2862751,  1.1,  0.9,  1.1,  0.9
   122, 'ROBBLE AVE  ',       115, 1,    1,   67, 1,  1.00582874,  95.6140227,  1.1,  0.9,  1.1,  0.9
   123, 'CASTLE GARDE',       115, 1,    1,   67, 1,  1.00440818,  95.1856792,  1.1,  0.9,  1.1,  0.9
   124, 'UNKNOWN12466',       115, 1,    1,   67, 1,  1.00107061,  106.758814,  1.1,  0.9,  1.1,  0.9
   125, 'UNKNOWN12470',       115, 2,    1,   69, 1,        1.03,  118.542138,  1.1,  0.9,  1.1,  0.9
   126, 'UNKNOWN12470',       115, 1,    1,   69, 1,  1.02894435,  118.406652,  1.1,  0.9,  1.1,  0.9
   127, 'UNKNOWN12470',       115, 2,    1,   70, 1,  1.01330877,  71.6444411,  1.1,  0.9,  1.1,  0.9
   128, 'UNKNOWN12470',       115, 2,    1,   66, 1,        1.02,  118.666918,  1.1,  0.9,  1.1,  0.9
   129, 'UNKNOWN12470',       115, 1,    1,   66, 1,  1.01944465,  111.815465,  1.1,  0.9,  1.1,  0.9
   130, 'UNKNOWN12470',       115, 1,    1,   66, 1,  1.01873594,  112.674206,  1.1,  0.9,  1.1,  0.9
   131, 'UNKNOWN12471',       115, 1,    1,   67, 1,  1.01731662,  120.708027,  1.1,  0.9,  1.1,  0.9
   132, 'UNKNOWN12472',       230, 1,    1,   67, 1,  1.01845327,  126.770591,  1.1,  0.9,  1.1,  0.9
   133, 'UNKNOWN12472',       115, 1,    1,   67, 1,  1.00198684,  107.364669,  1.1,  0.9,  1.1,  0.9
   134, 'ANGOLA      ',       115, 1,    1,   65, 1,  1.01375636,  122.373309,  1.1,  0.9,  1.1,  0.9
   135, 'SPRINGVILLE ',       115, 1,    1,   65, 1,  1.01480203,  124.985883,  1.1,  0.9,  1.1,  0.9
   136, 'COBBLE HILL ',       115, 1,    1,   65, 1,  1.01367943,  125.259198,  1.1,  0.9,  1.1,  0.9
   137, 'BIG TREE    ',       115, 1,    1,   65, 1,  1.01776161,  126.600174,  1.1,  0.9,  1.1,  0.9
   138, 'UNKNOWN12474',       230, 1,    1,   65, 1,  1.02260822,  133.553162,  1.1,  0.9,  1.1,  0.9
   139, 'PERRY #162  ',       115, 1,    1,   65, 1,  1.02150126,  127.337717,  1.1,  0.9,  1.1,  0.9
   140, 'SOUTH PERRY ',       115, 1,    1,   65, 1,  1.02157547,  127.369187,  1.1,  0.9,  1.1,  0.9
   141, 'UNKNOWN12474',       115, 1,    1,   65, 1,  1.01627898,   124.47071,  1.1,  0.9,  1.1,  0.9
   142, 'UNKNOWN12474',       115, 1,    1,   65, 1,  1.01559425,  123.902088,  1.1,  0.9,  1.1,  0.9
   143, 'UNKNOWN12474',       115, 1,    1,   65, 1,  1.02191993,  128.624999,  1.1,  0.9,  1.1,  0.9
   144, 'UNKNOWN12475',       115, 1,    1,   65, 1,   1.0178179,   127.76528,  1.1,  0.9,  1.1,  0.9
   145, 'ERIE ST     ',       115, 1,    1,   65, 1,  1.01598203,  127.233718,  1.1,  0.9,  1.1,  0.9
   146, 'DEPEW       ',       115, 1,    1,   65, 1,  1.01552247,  127.106302,  1.1,  0.9,  1.1,  0.9
   147, 'UNKNOWN12482',       115, 1,    1,   67, 1, 0.999635995,  106.901699,  1.1,  0.9,  1.1,  0.9
   148, 'UNKNOWN12482',       115, 1,    1,   67, 1,  1.00466442,  99.5733347,  1.1,  0.9,  1.1,  0.9
   149, 'UNKNOWN12482',       115, 1,    1,   67, 1,  1.00400076,  100.583725,  1.1,  0.9,  1.1,  0.9
   150, 'UNKNOWN12482',       115, 2,    1,   67, 1,  1.00615196,  99.9878496,  1.1,  0.9,  1.1,  0.9
   151, 'UNKNOWN12482',       115, 1,    1,   67, 1,  1.00617568,  99.9941694,  1.1,  0.9,  1.1,  0.9
   152, 'UNKNOWN12483',       115, 1,    1,   67, 1, 0.997916933,  111.034598,  1.1,  0.9,  1.1,  0.9
   153, 'LABRADOR    ',       115, 1,    1,   67, 1,  1.00599541,  95.3581961,  1.1,  0.9,  1.1,  0.9
   154, 'CORTLAND    ',       115, 1,    1,   67, 1,  1.00225382,  97.1942391,  1.1,  0.9,  1.1,  0.9
   155, 'UNKNOWN12483',       115, 1,    1,   67, 1,  1.00198156,  97.1220708,  1.1,  0.9,  1.1,  0.9
   156, 'STARR RD    ',       115, 1,    1,   67, 1,  1.00145423,  96.9536233,  1.1,  0.9,  1.1,  0.9
   157, 'SUNY        ',       115, 1,    1,   67, 1,  1.00143911,  96.9450725,  1.1,  0.9,  1.1,  0.9
   158, 'UNKNOWN12483',       115, 1,    1,   67, 1,  1.00159752,  96.9790116,  1.1,  0.9,  1.1,  0.9
   159, 'DAVIS RD    ',       115, 1,    1,   65, 1,  1.02027784,  127.774996,  1.1,  0.9,  1.1,  0.9
   160, 'UNKNOWN12494',       115, 1,    1,   65, 1,  1.01716055,  126.299767,  1.1,  0.9,  1.1,  0.9
   161, 'UNKNOWN12494',       115, 1,    1,   65, 1,  1.01791637,  124.766064,  1.1,  0.9,  1.1,  0.9
   162, 'UNKNOWN12494',       115, 1,    1,   65, 1,  1.01758119,  124.754801,  1.1,  0.9,  1.1,  0.9
   163, 'UNKNOWN12494',       115, 1,    1,   65, 1,  1.01664471,   124.74298,  1.1,  0.9,  1.1,  0.9
   164, 'UNKNOWN12494',       115, 1,    1,   65, 1,   1.0166397,  124.741775,  1.1,  0.9,  1.1,  0.9
   165, 'UNKNOWN12494',       115, 1,    1,   65, 1,  1.01246609,  125.645082,  1.1,  0.9,  1.1,  0.9
   166, 'UNKNOWN12494',       115, 1,    1,   65, 1,  1.01273646,  125.711561,  1.1,  0.9,  1.1,  0.9
   167, 'PINE GROVE  ',       115, 1,    1,   67, 1,  1.01046768,  100.749492,  1.1,  0.9,  1.1,  0.9
   168, 'BRIDGEPORT  ',       115, 1,    1,   69, 1,  1.01000328,   96.853902,  1.1,  0.9,  1.1,  0.9
   169, 'UNKNOWN12495',       115, 1,    1,   67, 1,   1.0112966,  100.199658,  1.1,  0.9,  1.1,  0.9
   170, 'UNKNOWN12495',       115, 1,    1,   67, 1,  1.01218414,  100.067765,  1.1,  0.9,  1.1,  0.9
   171, 'TEAL        ',       115, 1,    1,   67, 1,  1.01177908,  100.051943,  1.1,  0.9,  1.1,  0.9
   172, 'HOPKINS     ',       115, 1,    1,   67, 1,  1.01065241,  100.735215,  1.1,  0.9,  1.1,  0.9
   173, 'WOODARD     ',       115, 1,    1,   67, 1,  1.01029167,  101.678715,  1.1,  0.9,  1.1,  0.9
   174, 'BELMONT     ',       115, 1,    1,   67, 1,  1.01025536,  101.557158,  1.1,  0.9,  1.1,  0.9
   175, 'UNKNOWN12496',       115, 1,    1,   67, 1,   1.0117767,    101.8401,  1.1,  0.9,  1.1,  0.9
   176, 'UNKNOWN12496',       115, 1,    1,   67, 1,  1.01456216,  101.938795,  1.1,  0.9,  1.1,  0.9
   177, 'UNKNOWN12496',       115, 1,    1,   67, 1,  1.01408494,  101.957829,  1.1,  0.9,  1.1,  0.9
   178, 'UNKNOWN12496',       115, 1,    1,   67, 1,  1.01593339,  102.032322,  1.1,  0.9,  1.1,  0.9
   179, 'UNKNOWN12496',       115, 1,    1,   67, 1,  1.01554302,  102.048337,  1.1,  0.9,  1.1,  0.9
   180, 'MILTON      ',       115, 1,    1,   67, 1,  1.01285822,  102.311862,  1.1,  0.9,  1.1,  0.9
   181, 'UNKNOWN12497',       115, 1,    1,   67, 1,  1.01549128,  101.998599,  1.1,  0.9,  1.1,  0.9
   182, 'ANHEUSER BUS',       115, 1,    1,   67, 1,  1.00654587,  102.997759,  1.1,  0.9,  1.1,  0.9
   183, 'LYSANDER    ',       115, 1,    1,   67, 1,  1.00658464,  103.007165,  1.1,  0.9,  1.1,  0.9
   184, 'G E         ',       115, 1,    1,   67, 1,  1.01181323,  102.043917,  1.1,  0.9,  1.1,  0.9
   185, 'SORRELL HILL',       115, 1,    1,   67, 1,  1.00790221,  102.955771,  1.1,  0.9,  1.1,  0.9
   186, 'UNKNOWN12501',       115, 1,    1,   69, 1,  1.01068376,  79.3747742,  1.1,  0.9,  1.1,  0.9
   187, 'UNKNOWN12501',       115, 1,    1,   69, 1,  1.00675149,  81.9374371,  1.1,  0.9,  1.1,  0.9
   188, 'UNKNOWN12502',       115, 1,    1,   69, 1,  1.01290569,  73.6721813,  1.1,  0.9,  1.1,  0.9
   189, 'UNKNOWN12502',       115, 1,    1,   69, 1,  1.01371366,  76.7997472,  1.1,  0.9,  1.1,  0.9
   190, 'UNKNOWN12502',       115, 2,    1,   68, 1,        1.02,  111.619118,  1.1,  0.9,  1.1,  0.9
   191, 'UNKNOWN12502',       115, 1,    1,   68, 1,  1.00820737,  105.395662,  1.1,  0.9,  1.1,  0.9
   192, 'UNKNOWN12503',       115, 1,    1,   68, 1,  1.00039633,  110.289852,  1.1,  0.9,  1.1,  0.9
   193, 'UNKNOWN12503',       115, 2,    1,   68, 1, 0.997917678,  111.185066,  1.1,  0.9,  1.1,  0.9
   194, 'UNKNOWN12505',       115, 1,    1,   70, 1,  1.01643592,  69.1549499,  1.1,  0.9,  1.1,  0.9
   195, 'UNKNOWN12505',       115, 1,    1,   70, 1,  1.01638028,  69.1411885,  1.1,  0.9,  1.1,  0.9
   196, 'RISER125055 ',       115, 1,    1,   70, 1,  1.01540427,  69.0946096,  1.1,  0.9,  1.1,  0.9
   197, 'UNKNOWN12511',       115, 1,    1,   66, 1,  1.02030765,  117.520617,  1.1,  0.9,  1.1,  0.9
   198, 'HOGAN RD    ',       115, 1,    1,   66, 1,  1.00225938,  110.478006,  1.1,  0.9,  1.1,  0.9
   199, 'UNKNOWN12511',       115, 2,    1,   66, 1,  1.01949537,  113.891697,  1.1,  0.9,  1.1,  0.9
   200, 'STATION #52 ',       115, 1,    1,   66, 1,  1.00968678,   112.71853,  1.1,  0.9,  1.1,  0.9
...
0 / END OF BUS DATA, BEGIN LOAD DATA
     1,  1, 1,    1,   66,    132.34,         0, 0, 0, 0, 0, 1, 1, 0
     2,  1, 1,    1,   70,      1.78,         0, 0, 0, 0, 0, 1, 1, 0
     3,  1, 1,    1,   70,      3.97,         0, 0, 0, 0, 0, 1, 1, 0
     4,  1, 1,    1,   68,      96.6,         0, 0, 0, 0, 0, 1, 1, 0
     5,  1, 1,    1,   70,      3.97,         0, 0, 0, 0, 0, 1, 1, 0
     6,  1, 1,    1,   70,      3.97,         0, 0, 0, 0, 0, 1, 1, 0
     7,  1, 1,    1,   70,      7.93,         0, 0, 0, 0, 0, 1, 1, 0
     8,  1, 1,    1,   70,      7.93,         0, 0, 0, 0, 0, 1, 1, 0
     9,  1, 1,    1,   71,     38.36,         0, 0, 0, 0, 0, 1, 1, 0
    10,  1, 1,    1,   68,     19.32,         0, 0, 0, 0, 0, 1, 1, 0
    11,  1, 1,    1,   70,      7.93,         0, 0, 0, 0, 0, 1, 1, 0
    12,  1, 1,    1,   70,      3.97,         0, 0, 0, 0, 0, 1, 1, 0
    13,  1, 1,    1,   70,     15.86,         0, 0, 0, 0, 0, 1, 1, 0
    14,  1, 1,    1,   69,      4.21,         0, 0, 0, 0, 0, 1, 1, 0
    15,  1, 1,    1,   69,      4.21,         0, 0, 0, 0, 0, 1, 1, 0
    16,  1, 1,    1,   69,     10.53,         0, 0, 0, 0, 0, 1, 1, 0
    17,  1, 1,    1,   75,     44.93,         0, 0, 0, 0, 0, 1, 1, 0
    18,  1, 1,    1,   75,     42.13,         0, 0, 0, 0, 0, 1, 1, 0
    19,  1, 1,    1,   75,     86.98,         0, 0, 0, 0, 0, 1, 1, 0
    20,  1, 1,    1,   69,      8.42,         0, 0, 0, 0, 0, 1, 1, 0
    21,  1, 1,    1,   69,      8.42,         0, 0, 0, 0, 0, 1, 1, 0
    22,  1, 1,    1,   70,      1.78,         0, 0, 0, 0, 0, 1, 1, 0
    23,  1, 1,    1,   69,     10.53,         0, 0, 0, 0, 0, 1, 1, 0
    24,  1, 1,    1,   67,     22.54,         0, 0, 0, 0, 0, 1, 1, 0
    25,  1, 1,    1,   69,      2.11,         0, 0, 0, 0, 0, 1, 1, 0
    27,  1, 1,    1,   67,      9.02,         0, 0, 0, 0, 0, 1, 1, 0
    28,  1, 1,    1,   69,      2.11,         0, 0, 0, 0, 0, 1, 1, 0
    29,  1, 1,    1,   67,     18.04,         0, 0, 0, 0, 0, 1, 1, 0
    30,  1, 1,    1,   67,      9.02,         0, 0, 0, 0, 0, 1, 1, 0
    31,  1, 1,    1,   70,      3.97,         0, 0, 0, 0, 0, 1, 1, 0
    32,  1, 1,    1,   70,      3.97,         0, 0, 0, 0, 0, 1, 1, 0
    33,  1, 1,    1,   65,      5.71,         0, 0, 0, 0, 0, 1, 1, 0
    34,  1, 1,    1,   67,      9.02,         0, 0, 0, 0, 0, 1, 1, 0
    35,  1, 1,    1,   68,     45.97,         0, 0, 0, 0, 0, 1, 1, 0
    36,  1, 1,    1,   68,     45.97,         0, 0, 0, 0, 0, 1, 1, 0
    37,  1, 1,    1,   65,      8.57,         0, 0, 0, 0, 0, 1, 1, 0
    38,  1, 1,    1,   65,      5.71,         0, 0, 0, 0, 0, 1, 1, 0
    40,  1, 1,    1,   69,      2.11,         0, 0, 0, 0, 0, 1, 1, 0
    41,  1, 1,    1,   65,      5.71,         0, 0, 0, 0, 0, 1, 1, 0
    42,  1, 1,    1,   65,     19.99,         0, 0, 0, 0, 0, 1, 1, 0
    43,  1, 1,    1,   65,      5.71,         0, 0, 0, 0, 0, 1, 1, 0
    44,  1, 1,    1,   65,      2.86,         0, 0, 0, 0, 0, 1, 1, 0
    45,  1, 1,    1,   65,      8.57,         0, 0, 0, 0, 0, 1, 1, 0
    46,  1, 1,    1,   65,      5.71,         0, 0, 0, 0, 0, 1, 1, 0
    47,  1, 1,    1,   65,      2.86,         0, 0, 0, 0, 0, 1, 1, 0
    48,  1, 1,    1,   65,     11.42,         0, 0, 0, 0, 0, 1, 1, 0
    49,  1, 1,    1,   69,      4.21,         0, 0, 0, 0, 0, 1, 1, 0
    50,  1, 1,    1,   69,      4.21,         0, 0, 0, 0, 0, 1, 1, 0
    51,  1, 1,    1,   67,      4.51,         0, 0, 0, 0, 0, 1, 1, 0
    52,  1, 1,    1,   67,      4.51,         0, 0, 0, 0, 0, 1, 1, 0
    53,  1, 1,    1,   67,      9.02,         0, 0, 0, 0, 0, 1, 1, 0
    55,  1, 1,    1,   67,     13.53,         0, 0, 0, 0, 0, 1, 1, 0
    56,  1, 1,    1,   67,      9.02,         0, 0, 0, 0, 0, 1, 1, 0
    57,  1, 1,    1,   67,      9.02,         0, 0, 0, 0, 0, 1, 1, 0
    58,  1, 1,    1,   67,      6.76,         0, 0, 0, 0, 0, 1, 1, 0
    59,  1, 1,    1,   69,     14.74,         0, 0, 0, 0, 0, 1, 1, 0
    60,  1, 1,    1,   69,      1.89,         0, 0, 0, 0, 0, 1, 1, 0
    61,  1, 1,    1,   67,     13.53,         0, 0, 0, 0, 0, 1, 1, 0
    64,  1, 1,    1,   69,      2.11,         0, 0, 0, 0, 0, 1, 1, 0
    65,  1, 1,    1,   65,      5.71,         0, 0, 0, 0, 0, 1, 1, 0
    66,  1, 1,    1,   65,      5.71,         0, 0, 0, 0, 0, 1, 1, 0
    67,  1, 1,    1,   65,      2.86,         0, 0, 0, 0, 0, 1, 1, 0
    68,  1, 1,    1,   65,      5.71,         0, 0, 0, 0, 0, 1, 1, 0
    69,  1, 1,    1,   65,     14.28,         0, 0, 0, 0, 0, 1, 1, 0
    70,  1, 1,    1,   65,      5.71,         0, 0, 0, 0, 0, 1, 1, 0
    71,  1, 1,    1,   65,      8.57,         0, 0, 0, 0, 0, 1, 1, 0
    72,  1, 1,    1,   65,      2.86,         0, 0, 0, 0, 0, 1, 1, 0
    73,  1, 1,    1,   65,      5.71,         0, 0, 0, 0, 0, 1, 1, 0
    74,  1, 1,    1,   65,     11.42,         0, 0, 0, 0, 0, 1, 1, 0
    75,  1, 1,    1,   65,      2.86,         0, 0, 0, 0, 0, 1, 1, 0
    76,  1, 1,    1,   65,      5.71,         0, 0, 0, 0, 0, 1, 1, 0
    77,  1, 1,    1,   65,     14.28,         0, 0, 0, 0, 0, 1, 1, 0
    78,  1, 1,    1,   65,      5.71,         0, 0, 0, 0, 0, 1, 1, 0
    80,  1, 1,    1,   69,      4.21,         0, 0, 0, 0, 0, 1, 1, 0
    81,  1, 1,    1,   67,     22.54,         0, 0, 0, 0, 0, 1, 1, 0
    82,  1, 1,    1,   69,      2.11,         0, 0, 0, 0, 0, 1, 1, 0
    83,  1, 1,    1,   69,      6.32,         0, 0, 0, 0, 0, 1, 1, 0
    84,  1, 1,    1,   70,      3.97,         0, 0, 0, 0, 0, 1, 1, 0
    85,  1, 1,    1,   65,      2.86,         0, 0, 0, 0, 0, 1, 1, 0
    86,  1, 1,    1,   65,      5.71,         0, 0, 0, 0, 0, 1, 1, 0
    87,  1, 1,    1,   65,      8.57,         0, 0, 0, 0, 0, 1, 1, 0
    88,  1, 1,    1,   65,      5.71,         0, 0, 0, 0, 0, 1, 1, 0
    89,  1, 1,    1,   65,      2.86,         0, 0, 0, 0, 0, 1, 1, 0
    90,  1, 1,    1,   65,      5.71,         0, 0, 0, 0, 0, 1, 1, 0
    91,  1, 1,    1,   65,      5.71,         0, 0, 0, 0, 0, 1, 1, 0
    92,  1, 1,    1,   66,     16.54,         0, 0, 0, 0, 0, 1, 1, 0
    93,  1, 1,    1,   66,     16.54,         0, 0, 0, 0, 0, 1, 1, 0
    94,  1, 1,    1,   66,     16.54,         0, 0, 0, 0, 0, 1, 1, 0
    95,  1, 1,    1,   66,      8.27,         0, 0, 0, 0, 0, 1, 1, 0
    96,  1, 1,    1,   66,      8.27,         0, 0, 0, 0, 0, 1, 1, 0
    97,  1, 1,    1,   66,     16.54,         0, 0, 0, 0, 0, 1, 1, 0
    98,  1, 1,    1,   66,     16.54,         0, 0, 0, 0, 0, 1, 1, 0
    99,  1, 1,    1,   66,     16.54,         0, 0, 0, 0, 0, 1, 1, 0
   100,  1, 1,    1,   66,      8.27,         0, 0, 0, 0, 0, 1, 1, 0
   101,  1, 1,    1,   65,      5.71,         0, 0, 0, 0, 0, 1, 1, 0
   102,  1, 1,    1,   65,      5.71,         0, 0, 0, 0, 0, 1, 1, 0
   103,  1, 1,    1,   65,      2.86,         0, 0, 0, 0, 0, 1, 1, 0
   104,  1, 1,    1,   65,      5.71,         0, 0, 0, 0, 0, 1, 1, 0
   105,  1, 1,    1,   65,     22.85,         0, 0, 0, 0, 0, 1, 1, 0
   106,  1, 1,    1,   65,      5.71,         0, 0, 0, 0, 0, 1, 1, 0
   107,  1, 1,    1,   65,     14.28,         0, 0, 0, 0, 0, 1, 1, 0
   108,  1, 1,    1,   67,      9.02,         0, 0, 0, 0, 0, 1, 1, 0
   109,  1, 1,    1,   67,      9.02,         0, 0, 0, 0, 0, 1, 1, 0
   110,  1, 1,    1,   67,     13.53,         0, 0, 0, 0, 0, 1, 1, 0
   111,  1, 1,    1,   67,      9.02,         0, 0, 0, 0, 0, 1, 1, 0
   112,  1, 1,    1,   67,      9.02,         0, 0, 0, 0, 0, 1, 1, 0
   113,  1, 1,    1,   67,      9.02,         0, 0, 0, 0, 0, 1, 1, 0
   114,  1, 1,    1,   67,      9.02,         0, 0, 0, 0, 0, 1, 1, 0
   115,  1, 1,    1,   67,      9.02,         0, 0, 0, 0, 0, 1, 1, 0
   116,  1, 1,    1,   67,      9.02,         0, 0, 0, 0, 0, 1, 1, 0
   117,  1, 1,    1,   67,     13.53,         0, 0, 0, 0, 0, 1, 1, 0
   118,  1, 1,    1,   67,      9.02,         0, 0, 0, 0, 0, 1, 1, 0
   119,  1, 1,    1,   67,      9.02,         0, 0, 0, 0, 0, 1, 1, 0
   120,  1, 1,    1,   67,      9.02,         0, 0, 0, 0, 0, 1, 1, 0
   121,  1, 1,    1,   67,      9.02,         0, 0, 0, 0, 0, 1, 1, 0
   122,  1, 1,    1,   67,      9.02,         0, 0, 0, 0, 0, 1, 1, 0
   123,  1, 1,    1,   67,      9.02,         0, 0, 0, 0, 0, 1, 1, 0
   124,  1, 1,    1,   67,     27.05,         0, 0, 0, 0, 0, 1, 1, 0
   125,  1, 1,    1,   69,      2.11,         0, 0, 0, 0, 0, 1, 1, 0
   126,  1, 1,    1,   69,      2.11,         0, 0, 0, 0, 0, 1, 1, 0
   127,  1, 1,    1,   70,     39.66,         0, 0, 0, 0, 0, 1, 1, 0
   128,  1, 1,    1,   66,     49.63,         0, 0, 0, 0, 0, 1, 1, 0
   129,  1, 1,    1,   66,     24.81,         0, 0, 0, 0, 0, 1, 1, 0
   130,  1, 1,    1,   66,      8.27,         0, 0, 0, 0, 0, 1, 1, 0
   131,  1, 1,    1,   67,     27.05,         0, 0, 0, 0, 0, 1, 1, 0
   133,  1, 1,    1,   67,     13.53,         0, 0, 0, 0, 0, 1, 1, 0
   134,  1, 1,    1,   65,     14.28,         0, 0, 0, 0, 0, 1, 1, 0
   135,  1, 1,    1,   65,      5.71,         0, 0, 0, 0, 0, 1, 1, 0
   136,  1, 1,    1,   65,      5.71,         0, 0, 0, 0, 0, 1, 1, 0
   137,  1, 1,    1,   65,      5.71,         0, 0, 0, 0, 0, 1, 1, 0
   139,  1, 1,    1,   65,      8.57,         0, 0, 0, 0, 0, 1, 1, 0
   140,  1, 1,    1,   65,     12.17,         0, 0, 0, 0, 0, 1, 1, 0
   141,  1, 1,    1,   65,      5.71,         0, 0, 0, 0, 0, 1, 1, 0
   142,  1, 1,    1,   65,      8.57,         0, 0, 0, 0, 0, 1, 1, 0
   143,  1, 1,    1,   65,      5.71,         0, 0, 0, 0, 0, 1, 1, 0
   144,  1, 1,    1,   65,      5.71,         0, 0, 0, 0, 0, 1, 1, 0
   145,  1, 1,    1,   65,      8.57,         0, 0, 0, 0, 0, 1, 1, 0
   146,  1, 1,    1,   65,      2.86,         0, 0, 0, 0, 0, 1, 1, 0
   147,  1, 1,    1,   67,      4.51,         0, 0, 0, 0, 0, 1, 1, 0
   148,  1, 1,    1,   67,      4.51,         0, 0, 0, 0, 0, 1, 1, 0
   149,  1, 1,    1,   67,     13.53,         0, 0, 0, 0, 0, 1, 1, 0
   150,  1, 1,    1,   67,      9.02,         0, 0, 0, 0, 0, 1, 1, 0
   151,  1, 1,    1,   67,      4.51,         0, 0, 0, 0, 0, 1, 1, 0
   152,  1, 1,    1,   67,      9.02,         0, 0, 0, 0, 0, 1, 1, 0
   153,  1, 1,    1,   67,      4.51,         0, 0, 0, 0, 0, 1, 1, 0
   154,  1, 1,    1,   67,     13.53,         0, 0, 0, 0, 0, 1, 1, 0
   155,  1, 1,    1,   67,      4.51,         0, 0, 0, 0, 0, 1, 1, 0
   156,  1, 1,    1,   67,      9.02,         0, 0, 0, 0, 0, 1, 1, 0
   157,  1, 1,    1,   67,      4.51,         0, 0, 0, 0, 0, 1, 1, 0
   158,  1, 1,    1,   67,      4.51,         0, 0, 0, 0, 0, 1, 1, 0
   159,  1, 1,    1,   65,      5.71,         0, 0, 0, 0, 0, 1, 1, 0
   160,  1, 1,    1,   65,      2.86,         0, 0, 0, 0, 0, 1, 1, 0
   161,  1, 1,    1,   65,      5.71,         0, 0, 0, 0, 0, 1, 1, 0
   162,  1, 1,    1,   65,     11.42,         0, 0, 0, 0, 0, 1, 1, 0
   163,  1, 1,    1,   65,     14.28,         0, 0, 0, 0, 0, 1, 1, 0
   164,  1, 1,    1,   65,      2.86,         0, 0, 0, 0, 0, 1, 1, 0
   165,  1, 1,    1,   65,      2.86,         0, 0, 0, 0, 0, 1, 1, 0
   166,  1, 1,    1,   65,      2.86,         0, 0, 0, 0, 0, 1, 1, 0
   167,  1, 1,    1,   67,      9.02,         0, 0, 0, 0, 0, 1, 1, 0
   168,  1, 1,    1,   69,      2.11,         0, 0, 0, 0, 0, 1, 1, 0
   169,  1, 1,    1,   67,      9.02,         0, 0, 0, 0, 0, 1, 1, 0
   170,  1, 1,    1,   67,      9.02,         0, 0, 0, 0, 0, 1, 1, 0
   171,  1, 1,    1,   67,     36.07,         0, 0, 0, 0, 0, 1, 1, 0
   172,  1, 1,    1,   67,      9.02,         0, 0, 0, 0, 0, 1, 1, 0
   173,  1, 1,    1,   67,     13.53,         0, 0, 0, 0, 0, 1, 1, 0
   174,  1, 1,    1,   67,      9.02,         0, 0, 0, 0, 0, 1, 1, 0
   175,  1, 1,    1,   67,      9.02,         0, 0, 0, 0, 0, 1, 1, 0
   176,  1, 1,    1,   67,      9.02,         0, 0, 0, 0, 0, 1, 1, 0
   177,  1, 1,    1,   67,      4.51,         0, 0, 0, 0, 0, 1, 1, 0
   178,  1, 1,    1,   67,     13.53,         0, 0, 0, 0, 0, 1, 1, 0
   179,  1, 1,    1,   67,      9.02,         0, 0, 0, 0, 0, 1, 1, 0
   180,  1, 1,    1,   67,      9.02,         0, 0, 0, 0, 0, 1, 1, 0
   181,  1, 1,    1,   67,      9.02,         0, 0, 0, 0, 0, 1, 1, 0
   182,  1, 1,    1,   67,      9.02,         0, 0, 0, 0, 0, 1, 1, 0
   183,  1, 1,    1,   67,      9.02,         0, 0, 0, 0, 0, 1, 1, 0
   184,  1, 1,    1,   67,      9.02,         0, 0, 0, 0, 0, 1, 1, 0
   185,  1, 1,    1,   67,      9.02,         0, 0, 0, 0, 0, 1, 1, 0
   186,  1, 1,    1,   69,      6.32,         0, 0, 0, 0, 0, 1, 1, 0
   187,  1, 1,    1,   69,      4.21,         0, 0, 0, 0, 0, 1, 1, 0
   188,  1, 1,    1,   69,      4.21,         0, 0, 0, 0, 0, 1, 1, 0
   189,  1, 1,    1,   69,      2.11,         0, 0, 0, 0, 0, 1, 1, 0
   190,  1, 1,    1,   68,     38.64,         0, 0, 0, 0, 0, 1, 1, 0
   191,  1, 1,    1,   68,     38.64,         0, 0, 0, 0, 0, 1, 1, 0
   192,  1, 1,    1,   68,     57.96,         0, 0, 0, 0, 0, 1, 1, 0
   193,  1, 1,    1,   68,     77.28,         0, 0, 0, 0, 0, 1, 1, 0
   194,  1, 1,    1,   70,      23.8,         0, 0, 0, 0, 0, 1, 1, 0
   195,  1, 1,    1,   70,      7.93,         0, 0, 0, 0, 0, 1, 1, 0
   196,  1, 1,    1,   70,      7.93,         0, 0, 0, 0, 0, 1, 1, 0
   197,  1, 1,    1,   66,     16.54,         0, 0, 0, 0, 0, 1, 1, 0
   198,  1, 1,    1,   66,     16.54,         0, 0, 0, 0, 0, 1, 1, 0
   199,  1, 1,    1,   66,     16.54,         0, 0, 0, 0, 0, 1, 1, 0
   200,  1, 1,    1,   66,     24.81,         0, 0, 0, 0, 0, 1, 1, 0
   201,  1, 1,    1,   66,     16.54,         0, 0, 0, 0, 0, 1, 1, 0
   202,  1, 1,    1,   67,      9.02,         0, 0, 0, 0, 0, 1, 1, 0
   203,  1, 1,    1,   69,      4.21,         0, 0, 0, 0, 0, 1, 1, 0
   204,  1, 1,    1,   69,      6.32,         0, 0, 0, 0, 0, 1, 1, 0
   205,  1, 1,    1,   69,      8.42,         0, 0, 0, 0, 0, 1, 1, 0
   206,  1, 1,    1,   69,      4.21,         0, 0, 0, 0, 0, 1, 1, 0
   207,  1, 1,    1,   67,      4.51,         0, 0, 0, 0, 0, 1, 1, 0
   208,  1, 1,    1,   67,     13.53,         0, 0, 0, 0, 0, 1, 1, 0
...
